/*--------------------------------*- C++ -*----------------------------------*\
| =========                 |                                                 |
| \\      /  F ield         | OpenFOAM: The Open Source CFD Toolbox           |
|  \\    /   O peration     | Version:  v1706+                                |
|   \\  /    A nd           | Web:      www.OpenFOAM.org                      |
|    \\/     M anipulation  |                                                 |
\*---------------------------------------------------------------------------*/
/* Butterfly 0.0.4                https://github.com/ladybug-tools/butterfly *\
\*---------------------------------------------------------------------------*/
FoamFile
{
	version		4.0;
	format		ascii;
	class		dictionary;
	location	"system";
	object		blockMeshDict;
}

convertToMeters 1.0000;

vertices
(
	(-51.119998168945315 -13.399999384562072 0.45000000000000001)
	(22.519999694824218 -13.399999384562072 0.45000000000000001)
	(22.519999694824218 3.3999963073724353 0.45000000000000001)
	(-51.119998168945315 3.3999963073724353 0.45000000000000001)
	(-51.119998168945315 -13.399999384562072 0.55000000000000004)
	(22.519999694824218 -13.399999384562072 0.55000000000000004)
	(22.519999694824218 3.3999963073724353 0.55000000000000004)
	(-51.119998168945315 3.3999963073724353 0.55000000000000004)
);

blocks
(
hex (0 1 2 3 4 5 6 7) (7 7 1) 
simpleGrading (
	1.0
	1.0
	1.0
	)
);

edges
(
);

boundary
(   boundingbox
   {
       type wall;
       faces
       (       
	(1 2 6 5)
	(3 0 4 7)
	(0 1 5 4)
	(2 3 7 6)
       );
   }

   boundingbox_empty
   {
       type empty;
       faces
       (       
	(0 3 2 1)
	(4 5 6 7)
       );
   }
);

mergePatchPair
(
);
