/*--------------------------------*- C++ -*----------------------------------*\
| =========                 |                                                 |
| \\      /  F ield         | OpenFOAM: The Open Source CFD Toolbox           |
|  \\    /   O peration     | Version:  v1706+                                |
|   \\  /    A nd           | Web:      www.OpenFOAM.org                      |
|    \\/     M anipulation  |                                                 |
\*---------------------------------------------------------------------------*/
/* Butterfly 0.0.4                https://github.com/ladybug-tools/butterfly *\
\*---------------------------------------------------------------------------*/
FoamFile
{
	version		4.0;
	format		ascii;
	class		dictionary;
	location	"system";
	object		controlDict;
}

#include		"probes";

application		buoyantBoussinesqSimpleFoam;

startFrom		latestTime;

startTime		0;

stopAt		endTime;

endTime		100000;

deltaT		1;

writeControl		timeStep;

writeInterval		100;

purgeWrite		0;

writeFormat		ascii;

writePrecision		7;

writeCompression		off;

timeFormat		general;

timePrecision		6;

runTimeModifiable		true;

functions
{

    streamLines
    {

        libs		("libfieldFunctionObjects.so");

        nSubCycle		5;

        fields		(p U);

        lifeTime		10000;

        trackForward		true;

        U		U;

        writeControl		onEnd;

        setFormat		vtk;

        cloud		particleTracks;

        type		streamLine;

        seedSampleSet
        {

            axis		x;

            end		(-1.001 1e-7 1.0011);

            type		uniform;

            start		(-1.001 1e-7 0.0011);

            nPoints		200;

        }

    }

    postPro1
    {

        libs		("librunTimePostProcessing.so");

        colours
        {

            text		(0 0 0);

            background		(0.81 0.87 1);

            line		(1 0 0);

            edge		(1 0 0);

            surface		(0.5 0.5 0.5);

        }

        text
        {

            text1
            {

                visible		yes;

                bold		yes;

                position		(0.1 0.03);

                string		"Air velocity distribution in the room";

                size		20;

            }

        }

        output
        {

            name		image;

            width		1554;

            height		853;

        }

        writeControl		onEnd;

        type		runTimePostProcessing;

        camera
        {

            clipBox		(-5.9 1.8 0.5)(5.1 -8.5 0.5);

            up		(0 1 0);

            nFrameTotal		1;

            parallelProjection		no;

            focalPoint		(-0.3352214945524962 -3.452300687073489 0.5);

            position		(-0.3352214945524962 -3.452300687073489 20.370306316457867);

        }

        lines
        {

            streamline
            {

                tubeRadius		0.01;

                representation		tube;

                visible		yes;

                range		(0 14);

                opacity		1;

                scalarBar
                {

                    visible		no;

                }

                field		U;

                type		functionObjectLine;

                colourBy		field;

                functionObject		streamLines;

            }

        }

    }

}